agarase_substrate
     RDKit          3D

120128  0  0  0  0  0  0  0  0999 V2000
   -8.1441   -0.7358   -1.6452 C   0  0  0  0  0  0  0  0  0  0  0  0
   -8.9974   -1.4445   -0.5944 C   0  0  0  0  0  0  0  0  0  0  0  0
  -10.3904   -1.0897   -1.0780 C   0  0  0  0  0  0  0  0  0  0  0  0
  -10.1454    0.3946   -1.3235 C   0  0  0  0  0  0  0  0  0  0  0  0
   -8.8891    0.4423   -2.0350 O   0  0  0  0  0  0  0  0  0  0  0  0
  -10.0129    1.1372    0.0147 C   0  0  0  0  0  0  0  0  0  0  0  0
   -8.9445    0.4670    0.9252 C   0  0  0  0  0  0  0  0  0  0  0  0
   -8.8061   -0.9538    0.7461 O   0  0  0  0  0  0  0  0  0  0  0  0
   -7.6741    1.1054    0.7373 O   0  0  0  0  0  0  0  0  0  0  0  0
   -6.7768    0.9663    1.8623 C   0  0  0  0  0  0  0  0  0  0  0  0
   -5.8441    2.1855    1.8524 C   0  0  0  0  0  0  0  0  0  0  0  0
   -4.5064    1.9024    1.1680 C   0  0  0  0  0  0  0  0  0  0  0  0
   -3.8052    0.8214    1.7879 O   0  0  0  0  0  0  0  0  0  0  0  0
   -4.5629   -0.2754    2.2846 C   0  0  0  0  0  0  0  0  0  0  0  0
   -6.0135   -0.3643    1.7640 C   0  0  0  0  0  0  0  0  0  0  0  0
   -6.7379   -1.3890    2.4725 O   0  0  0  0  0  0  0  0  0  0  0  0
   -3.9184   -1.4955    1.8745 O   0  0  0  0  0  0  0  0  0  0  0  0
   -2.5768   -1.6433    2.3230 C   0  0  0  0  0  0  0  0  0  0  0  0
   -1.5462   -0.8285    1.5532 C   0  0  0  0  0  0  0  0  0  0  0  0
   -0.2491   -1.5268    1.9636 C   0  0  0  0  0  0  0  0  0  0  0  0
   -0.5877   -2.9203    2.1551 O   0  0  0  0  0  0  0  0  0  0  0  0
   -2.0213   -3.0202    1.9666 C   0  0  0  0  0  0  0  0  0  0  0  0
   -2.2959   -3.3355    0.4889 C   0  0  0  0  0  0  0  0  0  0  0  0
   -1.7739   -2.2050   -0.4400 C   0  0  0  0  0  0  0  0  0  0  0  0
   -1.8545   -0.8950    0.1433 O   0  0  0  0  0  0  0  0  0  0  0  0
   -0.4182   -2.4379   -0.8426 O   0  0  0  0  0  0  0  0  0  0  0  0
   -0.1156   -1.9913   -2.1865 C   0  0  0  0  0  0  0  0  0  0  0  0
   -0.4796   -0.5283   -2.5148 C   0  0  0  0  0  0  0  0  0  0  0  0
    0.5917    0.4689   -2.0215 C   0  0  0  0  0  0  0  0  0  0  0  0
    1.3975   -0.0916   -0.9842 O   0  0  0  0  0  0  0  0  0  0  0  0
    2.1764   -1.2029   -1.4332 C   0  0  0  0  0  0  0  0  0  0  0  0
    1.3969   -2.1620   -2.3756 C   0  0  0  0  0  0  0  0  0  0  0  0
    1.7691   -3.5294   -2.1156 O   0  0  0  0  0  0  0  0  0  0  0  0
    3.3560   -0.7568   -2.1124 O   0  0  0  0  0  0  0  0  0  0  0  0
    4.3555   -0.2298   -1.2358 C   0  0  0  0  0  0  0  0  0  0  0  0
    5.6588   -0.0977   -2.0064 C   0  0  0  0  0  0  0  0  0  0  0  0
    5.3422    1.0880   -2.9211 C   0  0  0  0  0  0  0  0  0  0  0  0
    4.5042    1.9728   -2.1359 O   0  0  0  0  0  0  0  0  0  0  0  0
    4.1751    1.2579   -0.9138 C   0  0  0  0  0  0  0  0  0  0  0  0
    5.1980    1.6598    0.1555 C   0  0  0  0  0  0  0  0  0  0  0  0
    6.6296    1.4171   -0.3888 C   0  0  0  0  0  0  0  0  0  0  0  0
    6.7429    0.1715   -1.0886 O   0  0  0  0  0  0  0  0  0  0  0  0
    7.5180    1.3700    0.7351 O   0  0  0  0  0  0  0  0  0  0  0  0
    8.8649    1.7744    0.4410 C   0  0  0  0  0  0  0  0  0  0  0  0
    9.6092    1.9013    1.7881 C   0  0  0  0  0  0  0  0  0  0  0  0
    9.8570    0.5046    2.3972 C   0  0  0  0  0  0  0  0  0  0  0  0
   10.5758   -0.3295    1.4773 O   0  0  0  0  0  0  0  0  0  0  0  0
    9.8933   -0.5431    0.2439 C   0  0  0  0  0  0  0  0  0  0  0  0
    9.6368    0.8009   -0.4795 C   0  0  0  0  0  0  0  0  0  0  0  0
   10.8844    1.4287   -0.8414 O   0  0  0  0  0  0  0  0  0  0  0  0
    8.7271   -1.3258    0.4326 O   0  0  0  0  0  0  0  0  0  0  0  0
   10.6495    0.5696    3.7163 C   0  0  0  0  0  0  0  0  0  0  0  0
   11.9298    1.1854    3.5859 O   0  0  0  0  0  0  0  0  0  0  0  0
   10.8454    2.6124    1.6154 O   0  0  0  0  0  0  0  0  0  0  0  0
    4.9662    0.9067    1.3565 O   0  0  0  0  0  0  0  0  0  0  0  0
   -0.0601    1.7526   -1.4908 C   0  0  0  0  0  0  0  0  0  0  0  0
   -1.0396    2.2531   -2.3970 O   0  0  0  0  0  0  0  0  0  0  0  0
   -0.6239   -0.3862   -3.9381 O   0  0  0  0  0  0  0  0  0  0  0  0
   -1.7237   -4.6022    0.1364 O   0  0  0  0  0  0  0  0  0  0  0  0
   -4.5836    1.6741   -0.3476 C   0  0  0  0  0  0  0  0  0  0  0  0
   -3.2613    1.4700   -0.8651 O   0  0  0  0  0  0  0  0  0  0  0  0
   -5.5904    2.5464    3.2226 O   0  0  0  0  0  0  0  0  0  0  0  0
  -11.2876    1.1740    0.6806 O   0  0  0  0  0  0  0  0  0  0  0  0
  -11.4123   -1.3560   -0.1265 O   0  0  0  0  0  0  0  0  0  0  0  0
   -7.1569   -0.4370   -1.2903 H   0  0  0  0  0  0  0  0  0  0  0  0
   -8.0300   -1.3517   -2.5433 H   0  0  0  0  0  0  0  0  0  0  0  0
   -8.8158   -2.5222   -0.5652 H   0  0  0  0  0  0  0  0  0  0  0  0
  -10.6237   -1.6068   -2.0164 H   0  0  0  0  0  0  0  0  0  0  0  0
  -10.9408    0.8384   -1.9310 H   0  0  0  0  0  0  0  0  0  0  0  0
   -9.7227    2.1783   -0.1667 H   0  0  0  0  0  0  0  0  0  0  0  0
   -9.2614    0.6162    1.9642 H   0  0  0  0  0  0  0  0  0  0  0  0
   -7.3659    0.9904    2.7886 H   0  0  0  0  0  0  0  0  0  0  0  0
   -6.3366    3.0444    1.3817 H   0  0  0  0  0  0  0  0  0  0  0  0
   -3.8485    2.7666    1.3256 H   0  0  0  0  0  0  0  0  0  0  0  0
   -4.5610   -0.2407    3.3806 H   0  0  0  0  0  0  0  0  0  0  0  0
   -5.9836   -0.7088    0.7248 H   0  0  0  0  0  0  0  0  0  0  0  0
   -7.5843   -1.5046    1.9932 H   0  0  0  0  0  0  0  0  0  0  0  0
   -2.4993   -1.4705    3.4039 H   0  0  0  0  0  0  0  0  0  0  0  0
   -1.5123    0.2287    1.8248 H   0  0  0  0  0  0  0  0  0  0  0  0
    0.5557   -1.4445    1.2321 H   0  0  0  0  0  0  0  0  0  0  0  0
    0.1097   -1.1530    2.9283 H   0  0  0  0  0  0  0  0  0  0  0  0
   -2.4062   -3.8192    2.6080 H   0  0  0  0  0  0  0  0  0  0  0  0
   -3.3796   -3.4271    0.3508 H   0  0  0  0  0  0  0  0  0  0  0  0
   -2.4088   -2.2148   -1.3346 H   0  0  0  0  0  0  0  0  0  0  0  0
   -0.6341   -2.6779   -2.8679 H   0  0  0  0  0  0  0  0  0  0  0  0
   -1.4597   -0.2803   -2.1078 H   0  0  0  0  0  0  0  0  0  0  0  0
    1.2390    0.7578   -2.8611 H   0  0  0  0  0  0  0  0  0  0  0  0
    2.4799   -1.7642   -0.5411 H   0  0  0  0  0  0  0  0  0  0  0  0
    1.6708   -1.9646   -3.4188 H   0  0  0  0  0  0  0  0  0  0  0  0
    1.2495   -3.7987   -1.3338 H   0  0  0  0  0  0  0  0  0  0  0  0
    4.4666   -0.8655   -0.3507 H   0  0  0  0  0  0  0  0  0  0  0  0
    5.9181   -0.9890   -2.5850 H   0  0  0  0  0  0  0  0  0  0  0  0
    6.2315    1.6358   -3.2447 H   0  0  0  0  0  0  0  0  0  0  0  0
    4.7643    0.7845   -3.8000 H   0  0  0  0  0  0  0  0  0  0  0  0
    3.1626    1.5240   -0.6071 H   0  0  0  0  0  0  0  0  0  0  0  0
    5.0998    2.7191    0.4180 H   0  0  0  0  0  0  0  0  0  0  0  0
    6.9148    2.2355   -1.0610 H   0  0  0  0  0  0  0  0  0  0  0  0
    8.8457    2.7700   -0.0224 H   0  0  0  0  0  0  0  0  0  0  0  0
    9.0033    2.4858    2.4903 H   0  0  0  0  0  0  0  0  0  0  0  0
    8.8965    0.0222    2.6188 H   0  0  0  0  0  0  0  0  0  0  0  0
   10.5745   -1.1419   -0.3695 H   0  0  0  0  0  0  0  0  0  0  0  0
    9.0887    0.6240   -1.4081 H   0  0  0  0  0  0  0  0  0  0  0  0
   11.4131    0.7687   -1.3294 H   0  0  0  0  0  0  0  0  0  0  0  0
    7.9468   -0.7702    0.2467 H   0  0  0  0  0  0  0  0  0  0  0  0
   10.0856    1.1285    4.4700 H   0  0  0  0  0  0  0  0  0  0  0  0
   10.8226   -0.4420    4.0975 H   0  0  0  0  0  0  0  0  0  0  0  0
   11.8175    1.9437    2.9755 H   0  0  0  0  0  0  0  0  0  0  0  0
   11.2570    2.2678    0.7904 H   0  0  0  0  0  0  0  0  0  0  0  0
    5.8153    0.9189    1.8421 H   0  0  0  0  0  0  0  0  0  0  0  0
    0.7029    2.5249   -1.3449 H   0  0  0  0  0  0  0  0  0  0  0  0
   -0.5181    1.5836   -0.5095 H   0  0  0  0  0  0  0  0  0  0  0  0
   -1.9093    2.1632   -1.9437 H   0  0  0  0  0  0  0  0  0  0  0  0
   -0.8782    0.5478   -4.0896 H   0  0  0  0  0  0  0  0  0  0  0  0
   -0.7774   -4.5197    0.3681 H   0  0  0  0  0  0  0  0  0  0  0  0
   -5.1642    0.7917   -0.6180 H   0  0  0  0  0  0  0  0  0  0  0  0
   -5.0163    2.5428   -0.8524 H   0  0  0  0  0  0  0  0  0  0  0  0
   -2.8917    0.7255   -0.3359 H   0  0  0  0  0  0  0  0  0  0  0  0
   -5.0318    3.3445    3.2254 H   0  0  0  0  0  0  0  0  0  0  0  0
  -11.6364    0.2551    0.6687 H   0  0  0  0  0  0  0  0  0  0  0  0
  -11.3574   -2.3029    0.1026 H   0  0  0  0  0  0  0  0  0  0  0  0
  1  2  1  0
  2  3  1  0
  3  4  1  0
  4  5  1  0
  4  6  1  0
  6  7  1  0
  7  8  1  0
  7  9  1  0
  9 10  1  0
 10 11  1  0
 11 12  1  0
 12 13  1  0
 13 14  1  0
 14 15  1  0
 15 16  1  0
 14 17  1  0
 17 18  1  0
 18 19  1  0
 19 20  1  0
 20 21  1  0
 21 22  1  0
 22 23  1  0
 23 24  1  0
 24 25  1  0
 24 26  1  0
 26 27  1  0
 27 28  1  0
 28 29  1  0
 29 30  1  0
 30 31  1  0
 31 32  1  0
 32 33  1  0
 31 34  1  0
 34 35  1  0
 35 36  1  0
 36 37  1  0
 37 38  1  0
 38 39  1  0
 39 40  1  0
 40 41  1  0
 41 42  1  0
 41 43  1  0
 43 44  1  0
 44 45  1  0
 45 46  1  0
 46 47  1  0
 47 48  1  0
 48 49  1  0
 49 50  1  0
 48 51  1  0
 46 52  1  0
 52 53  1  0
 45 54  1  0
 40 55  1  0
 29 56  1  0
 56 57  1  0
 28 58  1  0
 23 59  1  0
 12 60  1  0
 60 61  1  0
 11 62  1  0
  6 63  1  0
  3 64  1  0
  5  1  1  0
  8  2  1  0
 15 10  1  0
 22 18  1  0
 25 19  1  0
 32 27  1  0
 39 35  1  0
 42 36  1  0
 49 44  1  0
  1 65  1  0
  1 66  1  0
  2 67  1  0
  3 68  1  0
  4 69  1  0
  6 70  1  0
  7 71  1  0
 10 72  1  0
 11 73  1  0
 12 74  1  0
 14 75  1  0
 15 76  1  0
 16 77  1  0
 18 78  1  0
 19 79  1  0
 20 80  1  0
 20 81  1  0
 22 82  1  0
 23 83  1  0
 24 84  1  0
 27 85  1  0
 28 86  1  0
 29 87  1  0
 31 88  1  0
 32 89  1  0
 33 90  1  0
 35 91  1  0
 36 92  1  0
 37 93  1  0
 37 94  1  0
 39 95  1  0
 40 96  1  0
 41 97  1  0
 44 98  1  0
 45 99  1  0
 46100  1  0
 48101  1  0
 49102  1  0
 50103  1  0
 51104  1  0
 52105  1  0
 52106  1  0
 53107  1  0
 54108  1  0
 55109  1  0
 56110  1  0
 56111  1  0
 57112  1  0
 58113  1  0
 59114  1  0
 60115  1  0
 60116  1  0
 61117  1  0
 62118  1  0
 63119  1  0
 64120  1  0
M  END
$$$$
