cellulase_substrate
     RDKit          3D

108112  0  0  0  0  0  0  0  0999 V2000
   -8.6187   -2.5968    1.8405 C   0  0  0  0  0  0  0  0  0  0  0  0
   -8.5699   -1.1156    2.2519 C   0  0  0  0  0  0  0  0  0  0  0  0
   -9.9506   -0.4518    2.3717 C   0  0  0  0  0  0  0  0  0  0  0  0
  -10.5474   -0.1708    0.9872 C   0  0  0  0  0  0  0  0  0  0  0  0
   -9.5650    0.6399    0.1442 C   0  0  0  0  0  0  0  0  0  0  0  0
   -8.2164   -0.1127    0.0803 C   0  0  0  0  0  0  0  0  0  0  0  0
   -7.6981   -0.3702    1.3886 O   0  0  0  0  0  0  0  0  0  0  0  0
   -7.2932    0.6599   -0.6881 O   0  0  0  0  0  0  0  0  0  0  0  0
   -6.0655   -0.0400   -0.9934 C   0  0  0  0  0  0  0  0  0  0  0  0
   -4.9782    0.3161    0.0518 C   0  0  0  0  0  0  0  0  0  0  0  0
   -4.0999    1.3594   -0.3948 O   0  0  0  0  0  0  0  0  0  0  0  0
   -3.4142    1.1420   -1.6260 C   0  0  0  0  0  0  0  0  0  0  0  0
   -4.1895    0.2952   -2.6552 C   0  0  0  0  0  0  0  0  0  0  0  0
   -5.6829    0.4244   -2.4122 C   0  0  0  0  0  0  0  0  0  0  0  0
   -6.3836   -0.3813   -3.3815 O   0  0  0  0  0  0  0  0  0  0  0  0
   -3.8435   -1.1057   -2.5855 O   0  0  0  0  0  0  0  0  0  0  0  0
   -2.1437    0.5187   -1.3905 O   0  0  0  0  0  0  0  0  0  0  0  0
   -1.1929    1.4217   -0.8049 C   0  0  0  0  0  0  0  0  0  0  0  0
   -0.4170    0.7079    0.3136 C   0  0  0  0  0  0  0  0  0  0  0  0
    0.6581    1.5070    0.8439 O   0  0  0  0  0  0  0  0  0  0  0  0
    1.5723    2.0655   -0.1027 C   0  0  0  0  0  0  0  0  0  0  0  0
    0.8504    2.8063   -1.2456 C   0  0  0  0  0  0  0  0  0  0  0  0
   -0.2308    1.9321   -1.8816 C   0  0  0  0  0  0  0  0  0  0  0  0
   -0.9477    2.7082   -2.8568 O   0  0  0  0  0  0  0  0  0  0  0  0
    1.7500    3.2506   -2.2719 O   0  0  0  0  0  0  0  0  0  0  0  0
    2.4369    1.0421   -0.6049 O   0  0  0  0  0  0  0  0  0  0  0  0
    3.8270    1.4379   -0.7169 C   0  0  0  0  0  0  0  0  0  0  0  0
    4.7003    0.8803    0.4392 C   0  0  0  0  0  0  0  0  0  0  0  0
    5.0786   -0.4807    0.1629 O   0  0  0  0  0  0  0  0  0  0  0  0
    5.9841   -0.5868   -0.9425 C   0  0  0  0  0  0  0  0  0  0  0  0
    5.7844    0.4968   -2.0357 C   0  0  0  0  0  0  0  0  0  0  0  0
    4.3184    0.9019   -2.0888 C   0  0  0  0  0  0  0  0  0  0  0  0
    3.5224   -0.2081   -2.5332 O   0  0  0  0  0  0  0  0  0  0  0  0
    6.5772    1.6679   -1.7759 O   0  0  0  0  0  0  0  0  0  0  0  0
    7.3250   -0.4751   -0.4718 O   0  0  0  0  0  0  0  0  0  0  0  0
    8.0183   -1.7141   -0.3177 C   0  0  0  0  0  0  0  0  0  0  0  0
    9.5423   -1.4262   -0.3109 C   0  0  0  0  0  0  0  0  0  0  0  0
    9.9223   -0.6377    0.8377 O   0  0  0  0  0  0  0  0  0  0  0  0
    9.6247   -1.3066    2.0534 C   0  0  0  0  0  0  0  0  0  0  0  0
    8.1187   -1.5842    2.1947 C   0  0  0  0  0  0  0  0  0  0  0  0
    7.6149   -2.3911    0.9967 C   0  0  0  0  0  0  0  0  0  0  0  0
    8.1622   -3.7172    1.0489 O   0  0  0  0  0  0  0  0  0  0  0  0
    7.8537   -2.3242    3.3985 O   0  0  0  0  0  0  0  0  0  0  0  0
   10.0169   -0.4644    3.1309 O   0  0  0  0  0  0  0  0  0  0  0  0
    9.9961   -0.6398   -1.5531 C   0  0  0  0  0  0  0  0  0  0  0  0
    9.4762    0.6931   -1.5530 O   0  0  0  0  0  0  0  0  0  0  0  0
    4.0024    0.8934    1.8004 C   0  0  0  0  0  0  0  0  0  0  0  0
    4.8997    0.4323    2.8111 O   0  0  0  0  0  0  0  0  0  0  0  0
    0.0537   -0.7086   -0.0596 C   0  0  0  0  0  0  0  0  0  0  0  0
    0.6823   -1.3294    1.0606 O   0  0  0  0  0  0  0  0  0  0  0  0
   -4.1844   -0.8965    0.5718 C   0  0  0  0  0  0  0  0  0  0  0  0
   -5.0388   -1.9030    1.1066 O   0  0  0  0  0  0  0  0  0  0  0  0
   -9.4302    1.9433    0.7455 O   0  0  0  0  0  0  0  0  0  0  0  0
  -11.7711    0.5691    1.1405 O   0  0  0  0  0  0  0  0  0  0  0  0
  -10.8820   -1.2463    3.1149 O   0  0  0  0  0  0  0  0  0  0  0  0
   -7.3116   -3.1669    1.8849 O   0  0  0  0  0  0  0  0  0  0  0  0
   -8.9999   -2.7353    0.8258 H   0  0  0  0  0  0  0  0  0  0  0  0
   -9.2497   -3.1757    2.5213 H   0  0  0  0  0  0  0  0  0  0  0  0
   -8.0960   -1.0867    3.2412 H   0  0  0  0  0  0  0  0  0  0  0  0
   -9.8531    0.4998    2.9096 H   0  0  0  0  0  0  0  0  0  0  0  0
  -10.8088   -1.1080    0.4825 H   0  0  0  0  0  0  0  0  0  0  0  0
   -9.9561    0.8124   -0.8646 H   0  0  0  0  0  0  0  0  0  0  0  0
   -8.3769   -1.0620   -0.4443 H   0  0  0  0  0  0  0  0  0  0  0  0
   -6.2690   -1.1179   -1.0026 H   0  0  0  0  0  0  0  0  0  0  0  0
   -5.4829    0.7397    0.9278 H   0  0  0  0  0  0  0  0  0  0  0  0
   -3.2699    2.1359   -2.0641 H   0  0  0  0  0  0  0  0  0  0  0  0
   -3.9222    0.6014   -3.6726 H   0  0  0  0  0  0  0  0  0  0  0  0
   -6.0036    1.4598   -2.5784 H   0  0  0  0  0  0  0  0  0  0  0  0
   -5.8836   -1.2211   -3.4275 H   0  0  0  0  0  0  0  0  0  0  0  0
   -2.8738   -1.1154   -2.4514 H   0  0  0  0  0  0  0  0  0  0  0  0
   -1.7060    2.2865   -0.3612 H   0  0  0  0  0  0  0  0  0  0  0  0
   -1.1068    0.5759    1.1572 H   0  0  0  0  0  0  0  0  0  0  0  0
    2.1657    2.7963    0.4578 H   0  0  0  0  0  0  0  0  0  0  0  0
    0.3733    3.7068   -0.8394 H   0  0  0  0  0  0  0  0  0  0  0  0
    0.2112    1.0983   -2.4393 H   0  0  0  0  0  0  0  0  0  0  0  0
   -0.2842    3.2587   -3.3191 H   0  0  0  0  0  0  0  0  0  0  0  0
    2.0923    2.4563   -2.7239 H   0  0  0  0  0  0  0  0  0  0  0  0
    3.9189    2.5317   -0.7134 H   0  0  0  0  0  0  0  0  0  0  0  0
    5.6241    1.4647    0.5378 H   0  0  0  0  0  0  0  0  0  0  0  0
    5.7994   -1.5701   -1.3913 H   0  0  0  0  0  0  0  0  0  0  0  0
    6.1229    0.0946   -2.9973 H   0  0  0  0  0  0  0  0  0  0  0  0
    4.1839    1.6940   -2.8338 H   0  0  0  0  0  0  0  0  0  0  0  0
    2.8960   -0.4002   -1.8056 H   0  0  0  0  0  0  0  0  0  0  0  0
    7.4922    1.3338   -1.6251 H   0  0  0  0  0  0  0  0  0  0  0  0
    7.8115   -2.3710   -1.1725 H   0  0  0  0  0  0  0  0  0  0  0  0
   10.0984   -2.3721   -0.2833 H   0  0  0  0  0  0  0  0  0  0  0  0
   10.2096   -2.2307    2.1361 H   0  0  0  0  0  0  0  0  0  0  0  0
    7.5720   -0.6364    2.2620 H   0  0  0  0  0  0  0  0  0  0  0  0
    6.5281   -2.5043    1.0676 H   0  0  0  0  0  0  0  0  0  0  0  0
    7.9609   -4.0324    1.9559 H   0  0  0  0  0  0  0  0  0  0  0  0
    8.2352   -1.7763    4.1150 H   0  0  0  0  0  0  0  0  0  0  0  0
   10.9746   -0.3449    3.0146 H   0  0  0  0  0  0  0  0  0  0  0  0
   11.0876   -0.5517   -1.5596 H   0  0  0  0  0  0  0  0  0  0  0  0
    9.6825   -1.1364   -2.4760 H   0  0  0  0  0  0  0  0  0  0  0  0
    9.6063    1.0072   -0.6341 H   0  0  0  0  0  0  0  0  0  0  0  0
    3.1393    0.2244    1.8173 H   0  0  0  0  0  0  0  0  0  0  0  0
    3.6834    1.9026    2.0742 H   0  0  0  0  0  0  0  0  0  0  0  0
    5.1975   -0.4485    2.5146 H   0  0  0  0  0  0  0  0  0  0  0  0
   -0.7892   -1.3430   -0.3497 H   0  0  0  0  0  0  0  0  0  0  0  0
    0.7683   -0.7090   -0.8846 H   0  0  0  0  0  0  0  0  0  0  0  0
    1.1832   -0.6294    1.5190 H   0  0  0  0  0  0  0  0  0  0  0  0
   -3.5683   -1.3568   -0.2008 H   0  0  0  0  0  0  0  0  0  0  0  0
   -3.5001   -0.5683    1.3626 H   0  0  0  0  0  0  0  0  0  0  0  0
   -4.4549   -2.5995    1.4630 H   0  0  0  0  0  0  0  0  0  0  0  0
  -10.3467    2.2672    0.8475 H   0  0  0  0  0  0  0  0  0  0  0  0
  -12.2779    0.0829    1.8221 H   0  0  0  0  0  0  0  0  0  0  0  0
  -10.5571   -1.2857    4.0339 H   0  0  0  0  0  0  0  0  0  0  0  0
   -6.6841   -2.4946    1.5310 H   0  0  0  0  0  0  0  0  0  0  0  0
  1  2  1  0
  2  3  1  0
  3  4  1  0
  4  5  1  0
  5  6  1  0
  6  7  1  0
  6  8  1  0
  8  9  1  0
  9 10  1  0
 10 11  1  0
 11 12  1  0
 12 13  1  0
 13 14  1  0
 14 15  1  0
 13 16  1  0
 12 17  1  0
 17 18  1  0
 18 19  1  0
 19 20  1  0
 20 21  1  0
 21 22  1  0
 22 23  1  0
 23 24  1  0
 22 25  1  0
 21 26  1  0
 26 27  1  0
 27 28  1  0
 28 29  1  0
 29 30  1  0
 30 31  1  0
 31 32  1  0
 32 33  1  0
 31 34  1  0
 30 35  1  0
 35 36  1  0
 36 37  1  0
 37 38  1  0
 38 39  1  0
 39 40  1  0
 40 41  1  0
 41 42  1  0
 40 43  1  0
 39 44  1  0
 37 45  1  0
 45 46  1  0
 28 47  1  0
 47 48  1  0
 19 49  1  0
 49 50  1  0
 10 51  1  0
 51 52  1  0
  5 53  1  0
  4 54  1  0
  3 55  1  0
  1 56  1  0
  7  2  1  0
 14  9  1  0
 23 18  1  0
 32 27  1  0
 41 36  1  0
  1 57  1  0
  1 58  1  0
  2 59  1  0
  3 60  1  0
  4 61  1  0
  5 62  1  0
  6 63  1  0
  9 64  1  0
 10 65  1  0
 12 66  1  0
 13 67  1  0
 14 68  1  0
 15 69  1  0
 16 70  1  0
 18 71  1  0
 19 72  1  0
 21 73  1  0
 22 74  1  0
 23 75  1  0
 24 76  1  0
 25 77  1  0
 27 78  1  0
 28 79  1  0
 30 80  1  0
 31 81  1  0
 32 82  1  0
 33 83  1  0
 34 84  1  0
 36 85  1  0
 37 86  1  0
 39 87  1  0
 40 88  1  0
 41 89  1  0
 42 90  1  0
 43 91  1  0
 44 92  1  0
 45 93  1  0
 45 94  1  0
 46 95  1  0
 47 96  1  0
 47 97  1  0
 48 98  1  0
 49 99  1  0
 49100  1  0
 50101  1  0
 51102  1  0
 51103  1  0
 52104  1  0
 53105  1  0
 54106  1  0
 55107  1  0
 56108  1  0
M  END
$$$$
