galactosidase_substrate
     RDKit          3D

 45 46  0  0  0  0  0  0  0  0999 V2000
   -2.8701    0.6279   -1.9335 C   0  0  0  0  0  0  0  0  0  0  0  0
   -2.3994    0.1989   -0.5352 C   0  0  0  0  0  0  0  0  0  0  0  0
   -3.5295   -0.2804    0.4046 C   0  0  0  0  0  0  0  0  0  0  0  0
   -3.1059   -1.5270    1.1860 C   0  0  0  0  0  0  0  0  0  0  0  0
   -1.6747   -1.3970    1.6979 C   0  0  0  0  0  0  0  0  0  0  0  0
   -0.7001   -1.1038    0.5279 C   0  0  0  0  0  0  0  0  0  0  0  0
   -1.4008   -0.8307   -0.6812 O   0  0  0  0  0  0  0  0  0  0  0  0
    0.1566   -0.0270    0.9152 O   0  0  0  0  0  0  0  0  0  0  0  0
    1.3509    0.1119    0.1338 C   0  0  0  0  0  0  0  0  0  0  0  0
    2.3216    1.0010    0.9492 C   0  0  0  0  0  0  0  0  0  0  0  0
    3.3123    1.6822    0.1479 O   0  0  0  0  0  0  0  0  0  0  0  0
    3.6608    0.9595   -1.0196 C   0  0  0  0  0  0  0  0  0  0  0  0
    2.4706    0.8978   -1.9998 C   0  0  0  0  0  0  0  0  0  0  0  0
    1.1298    0.7531   -1.2522 C   0  0  0  0  0  0  0  0  0  0  0  0
    0.4941    2.0378   -1.1092 O   0  0  0  0  0  0  0  0  0  0  0  0
    2.6687   -0.2167   -2.8827 O   0  0  0  0  0  0  0  0  0  0  0  0
    4.7399    1.6208   -1.6620 O   0  0  0  0  0  0  0  0  0  0  0  0
    3.0387    0.1964    2.0425 C   0  0  0  0  0  0  0  0  0  0  0  0
    3.8883    1.0551    2.8035 O   0  0  0  0  0  0  0  0  0  0  0  0
   -1.3303   -2.6118    2.3960 O   0  0  0  0  0  0  0  0  0  0  0  0
   -4.0212   -1.7233    2.2768 O   0  0  0  0  0  0  0  0  0  0  0  0
   -4.7522   -0.5959   -0.2844 O   0  0  0  0  0  0  0  0  0  0  0  0
   -3.5641   -0.4150   -2.6193 O   0  0  0  0  0  0  0  0  0  0  0  0
   -3.5366    1.4940   -1.8688 H   0  0  0  0  0  0  0  0  0  0  0  0
   -2.0108    0.8992   -2.5546 H   0  0  0  0  0  0  0  0  0  0  0  0
   -1.9111    1.0671   -0.0749 H   0  0  0  0  0  0  0  0  0  0  0  0
   -3.7885    0.5375    1.0881 H   0  0  0  0  0  0  0  0  0  0  0  0
   -3.2057   -2.4236    0.5610 H   0  0  0  0  0  0  0  0  0  0  0  0
   -1.6185   -0.6073    2.4565 H   0  0  0  0  0  0  0  0  0  0  0  0
   -0.0828   -1.9925    0.3515 H   0  0  0  0  0  0  0  0  0  0  0  0
    1.8027   -0.8798   -0.0036 H   0  0  0  0  0  0  0  0  0  0  0  0
    1.7611    1.7999    1.4515 H   0  0  0  0  0  0  0  0  0  0  0  0
    4.0135   -0.0465   -0.7605 H   0  0  0  0  0  0  0  0  0  0  0  0
    2.4438    1.7987   -2.6254 H   0  0  0  0  0  0  0  0  0  0  0  0
    0.4489    0.1452   -1.8523 H   0  0  0  0  0  0  0  0  0  0  0  0
    1.1453    2.6630   -0.7414 H   0  0  0  0  0  0  0  0  0  0  0  0
    3.4265    0.0233   -3.4501 H   0  0  0  0  0  0  0  0  0  0  0  0
    5.4923    1.5457   -1.0515 H   0  0  0  0  0  0  0  0  0  0  0  0
    2.3266   -0.2758    2.7257 H   0  0  0  0  0  0  0  0  0  0  0  0
    3.6751   -0.5803    1.6071 H   0  0  0  0  0  0  0  0  0  0  0  0
    4.2527    1.7124    2.1804 H   0  0  0  0  0  0  0  0  0  0  0  0
   -1.3291   -3.3411    1.7490 H   0  0  0  0  0  0  0  0  0  0  0  0
   -3.5611   -2.3067    2.9135 H   0  0  0  0  0  0  0  0  0  0  0  0
   -5.3451   -0.9591    0.4064 H   0  0  0  0  0  0  0  0  0  0  0  0
   -4.2832   -0.6870   -2.0097 H   0  0  0  0  0  0  0  0  0  0  0  0
  1  2  1  0
  2  3  1  0
  3  4  1  0
  4  5  1  0
  5  6  1  0
  6  7  1  0
  6  8  1  0
  8  9  1  0
  9 10  1  0
 10 11  1  0
 11 12  1  0
 12 13  1  0
 13 14  1  0
 14 15  1  0
 13 16  1  0
 12 17  1  0
 10 18  1  0
 18 19  1  0
  5 20  1  0
  4 21  1  0
  3 22  1  0
  1 23  1  0
  7  2  1  0
 14  9  1  0
  1 24  1  0
  1 25  1  0
  2 26  1  0
  3 27  1  0
  4 28  1  0
  5 29  1  0
  6 30  1  0
  9 31  1  0
 10 32  1  0
 12 33  1  0
 13 34  1  0
 14 35  1  0
 15 36  1  0
 16 37  1  0
 17 38  1  0
 18 39  1  0
 18 40  1  0
 19 41  1  0
 20 42  1  0
 21 43  1  0
 22 44  1  0
 23 45  1  0
M  END
$$$$
