galactan_probe
     RDKit          3D

 46 48  0  0  0  0  0  0  0  0999 V2000
    2.3506    2.0278   -1.9264 C   0  0  0  0  0  0  0  0  0  0  0  0
    1.1865    1.2322   -1.3340 C   0  0  0  0  0  0  0  0  0  0  0  0
    1.5570    1.2587    0.1407 C   0  0  0  0  0  0  0  0  0  0  0  0
    3.0227    0.8744   -0.0214 C   0  0  0  0  0  0  0  0  0  0  0  0
    3.4997    1.7291   -1.0921 O   0  0  0  0  0  0  0  0  0  0  0  0
    3.1406   -0.6013   -0.4289 C   0  0  0  0  0  0  0  0  0  0  0  0
    2.3209   -0.8863   -1.7072 C   0  0  0  0  0  0  0  0  0  0  0  0
    1.1231   -0.1244   -1.8109 O   0  0  0  0  0  0  0  0  0  0  0  0
    3.1144   -0.6518   -2.8683 O   0  0  0  0  0  0  0  0  0  0  0  0
    4.5168   -0.9574   -0.6161 O   0  0  0  0  0  0  0  0  0  0  0  0
    0.8307    0.3433    0.9541 O   0  0  0  0  0  0  0  0  0  0  0  0
   -0.3226    0.9298    1.5621 C   0  0  0  0  0  0  0  0  0  0  0  0
   -0.8101   -0.0253    2.6688 C   0  0  0  0  0  0  0  0  0  0  0  0
   -2.2501    0.3277    2.9996 C   0  0  0  0  0  0  0  0  0  0  0  0
   -3.1313    0.0583    1.7774 C   0  0  0  0  0  0  0  0  0  0  0  0
   -2.4284    0.3980    0.4406 C   0  0  0  0  0  0  0  0  0  0  0  0
   -1.3243    1.3057    0.6184 O   0  0  0  0  0  0  0  0  0  0  0  0
   -2.0382   -0.8176   -0.4187 C   0  0  0  0  0  0  0  0  0  0  0  0
   -1.7746   -0.3684   -1.7463 O   0  0  0  0  0  0  0  0  0  0  0  0
   -1.4778   -1.4903   -2.8807 S   0  0  0  0  0  0  0  0  0  0  0  0
   -0.7452   -2.5942   -2.3036 O   0  0  0  0  0  0  0  0  0  0  0  0
   -1.0366   -0.8155   -4.0813 O   0  0  0  0  0  0  0  0  0  0  0  0
   -2.9603   -2.0146   -3.2273 O   0  0  0  0  0  0  0  0  0  0  0  0
   -3.5692   -1.3054    1.8057 O   0  0  0  0  0  0  0  0  0  0  0  0
   -2.7188   -0.4626    4.1050 O   0  0  0  0  0  0  0  0  0  0  0  0
   -0.0091    0.0958    3.8569 O   0  0  0  0  0  0  0  0  0  0  0  0
    2.1737    3.1055   -1.8465 H   0  0  0  0  0  0  0  0  0  0  0  0
    2.5780    1.7815   -2.9662 H   0  0  0  0  0  0  0  0  0  0  0  0
    0.2204    1.6949   -1.5492 H   0  0  0  0  0  0  0  0  0  0  0  0
    1.4976    2.2821    0.5360 H   0  0  0  0  0  0  0  0  0  0  0  0
    3.6185    1.0718    0.8754 H   0  0  0  0  0  0  0  0  0  0  0  0
    2.7553   -1.2203    0.3894 H   0  0  0  0  0  0  0  0  0  0  0  0
    2.0557   -1.9490   -1.7235 H   0  0  0  0  0  0  0  0  0  0  0  0
    2.6355   -1.1029   -3.5856 H   0  0  0  0  0  0  0  0  0  0  0  0
    4.7517   -0.5489   -1.4767 H   0  0  0  0  0  0  0  0  0  0  0  0
    0.0023    1.8568    2.0521 H   0  0  0  0  0  0  0  0  0  0  0  0
   -0.7317   -1.0749    2.3608 H   0  0  0  0  0  0  0  0  0  0  0  0
   -2.3184    1.3795    3.3028 H   0  0  0  0  0  0  0  0  0  0  0  0
   -4.0398    0.6649    1.8733 H   0  0  0  0  0  0  0  0  0  0  0  0
   -3.1513    0.9712   -0.1550 H   0  0  0  0  0  0  0  0  0  0  0  0
   -1.1428   -1.3074   -0.0256 H   0  0  0  0  0  0  0  0  0  0  0  0
   -2.8577   -1.5413   -0.4683 H   0  0  0  0  0  0  0  0  0  0  0  0
   -3.3125   -1.4316   -3.9302 H   0  0  0  0  0  0  0  0  0  0  0  0
   -3.7078   -1.5043    2.7586 H   0  0  0  0  0  0  0  0  0  0  0  0
   -1.9911   -0.4330    4.7613 H   0  0  0  0  0  0  0  0  0  0  0  0
    0.8976   -0.1606    3.5988 H   0  0  0  0  0  0  0  0  0  0  0  0
  1  2  1  0
  2  3  1  0
  3  4  1  0
  4  5  1  0
  4  6  1  0
  6  7  1  0
  7  8  1  0
  7  9  1  0
  6 10  1  0
  3 11  1  0
 11 12  1  0
 12 13  1  0
 13 14  1  0
 14 15  1  0
 15 16  1  0
 16 17  1  0
 16 18  1  0
 18 19  1  0
 19 20  1  0
 20 21  2  0
 20 22  2  0
 20 23  1  0
 15 24  1  0
 14 25  1  0
 13 26  1  0
  5  1  1  0
  8  2  1  0
 17 12  1  0
  1 27  1  0
  1 28  1  0
  2 29  1  0
  3 30  1  0
  4 31  1  0
  6 32  1  0
  7 33  1  0
  9 34  1  0
 10 35  1  0
 12 36  1  0
 13 37  1  0
 14 38  1  0
 15 39  1  0
 16 40  1  0
 18 41  1  0
 18 42  1  0
 23 43  1  0
 24 44  1  0
 25 45  1  0
 26 46  1  0
M  END
$$$$
