lysozyme_substrate
     RDKit          3D

135140  0  0  0  0  0  0  0  0999 V2000
   -0.7928    3.5876    3.6233 C   0  0  0  0  0  0  0  0  0  0  0  0
   -1.4314    3.8513    2.2494 C   0  0  0  0  0  0  0  0  0  0  0  0
   -1.0786    5.2141    1.6303 C   0  0  0  0  0  0  0  0  0  0  0  0
    0.3361    5.2323    1.0330 C   0  0  0  0  0  0  0  0  0  0  0  0
    0.6620    3.9455    0.2396 C   0  0  0  0  0  0  0  0  0  0  0  0
   -0.6157    3.0615    0.1149 C   0  0  0  0  0  0  0  0  0  0  0  0
   -1.1373    2.7331    1.4003 O   0  0  0  0  0  0  0  0  0  0  0  0
   -0.2870    1.8728   -0.6189 O   0  0  0  0  0  0  0  0  0  0  0  0
   -1.3872    0.9626   -0.7176 C   0  0  0  0  0  0  0  0  0  0  0  0
   -1.2560   -0.1820    0.3159 C   0  0  0  0  0  0  0  0  0  0  0  0
   -2.4265   -1.1859    0.2566 C   0  0  0  0  0  0  0  0  0  0  0  0
   -2.2949   -2.1281   -0.9569 C   0  0  0  0  0  0  0  0  0  0  0  0
   -0.8941   -2.7769   -0.9712 C   0  0  0  0  0  0  0  0  0  0  0  0
    0.1811   -1.6542   -0.9343 C   0  0  0  0  0  0  0  0  0  0  0  0
    0.0172   -0.8479    0.2263 O   0  0  0  0  0  0  0  0  0  0  0  0
    1.4663   -2.2797   -0.9267 O   0  0  0  0  0  0  0  0  0  0  0  0
    2.5102   -1.4739   -1.4764 C   0  0  0  0  0  0  0  0  0  0  0  0
    3.3267   -0.7556   -0.3625 C   0  0  0  0  0  0  0  0  0  0  0  0
    4.5665   -0.0827   -0.9889 C   0  0  0  0  0  0  0  0  0  0  0  0
    5.3703   -1.0821   -1.8284 C   0  0  0  0  0  0  0  0  0  0  0  0
    4.4496   -1.7388   -2.8566 C   0  0  0  0  0  0  0  0  0  0  0  0
    3.3455   -2.3859   -2.2054 O   0  0  0  0  0  0  0  0  0  0  0  0
    5.1874   -2.8092   -3.6675 C   0  0  0  0  0  0  0  0  0  0  0  0
    4.2619   -3.4586   -4.5456 O   0  0  0  0  0  0  0  0  0  0  0  0
    6.4472   -0.3974   -2.4788 O   0  0  0  0  0  0  0  0  0  0  0  0
    5.4479    0.4055    0.0417 O   0  0  0  0  0  0  0  0  0  0  0  0
    5.3705    1.8245    0.2014 C   0  0  0  0  0  0  0  0  0  0  0  0
    5.5038    2.1786    1.7125 C   0  0  0  0  0  0  0  0  0  0  0  0
    6.1256    3.5759    1.8108 C   0  0  0  0  0  0  0  0  0  0  0  0
    7.5377    3.5706    1.1999 C   0  0  0  0  0  0  0  0  0  0  0  0
    7.6446    2.5572    0.0335 C   0  0  0  0  0  0  0  0  0  0  0  0
    6.3763    2.4282   -0.6268 O   0  0  0  0  0  0  0  0  0  0  0  0
    8.7021    2.9162   -1.0192 C   0  0  0  0  0  0  0  0  0  0  0  0
    8.4520    4.2097   -1.5757 O   0  0  0  0  0  0  0  0  0  0  0  0
    7.8441    4.9299    0.8594 O   0  0  0  0  0  0  0  0  0  0  0  0
    6.2020    4.0045    3.1811 O   0  0  0  0  0  0  0  0  0  0  0  0
    4.2203    2.0943    2.4564 N   0  0  0  0  0  0  0  0  0  0  0  0
    2.5495    0.2588    0.3772 N   0  0  0  0  0  0  0  0  0  0  0  0
   -0.7465   -3.7473    0.1429 N   0  0  0  0  0  0  0  0  0  0  0  0
   -3.3719   -3.0879   -0.8917 O   0  0  0  0  0  0  0  0  0  0  0  0
   -3.4693   -3.9475   -2.0336 C   0  0  0  0  0  0  0  0  0  0  0  0
   -4.9726   -4.2712   -2.2362 C   0  0  0  0  0  0  0  0  0  0  0  0
   -5.1601   -5.3890   -3.2720 C   0  0  0  0  0  0  0  0  0  0  0  0
   -4.2759   -6.5887   -2.9262 C   0  0  0  0  0  0  0  0  0  0  0  0
   -2.8092   -6.1507   -2.7674 C   0  0  0  0  0  0  0  0  0  0  0  0
   -2.6915   -5.1206   -1.7801 O   0  0  0  0  0  0  0  0  0  0  0  0
   -2.1030   -5.7639   -4.0805 C   0  0  0  0  0  0  0  0  0  0  0  0
   -2.2088   -6.8151   -5.0353 O   0  0  0  0  0  0  0  0  0  0  0  0
   -4.4819   -7.6136   -3.9046 O   0  0  0  0  0  0  0  0  0  0  0  0
   -6.5366   -5.8075   -3.2905 O   0  0  0  0  0  0  0  0  0  0  0  0
   -5.7438   -3.0712   -2.6444 N   0  0  0  0  0  0  0  0  0  0  0  0
   -3.6753   -0.4772    0.1598 O   0  0  0  0  0  0  0  0  0  0  0  0
   -4.4511   -0.5742    1.3612 C   0  0  0  0  0  0  0  0  0  0  0  0
   -5.7838    0.2081    1.1413 C   0  0  0  0  0  0  0  0  0  0  0  0
   -6.6450    0.1837    2.4346 C   0  0  0  0  0  0  0  0  0  0  0  0
   -5.9094   -0.4867    3.6010 C   0  0  0  0  0  0  0  0  0  0  0  0
   -4.4522    0.0096    3.7042 C   0  0  0  0  0  0  0  0  0  0  0  0
   -3.7294   -0.0362    2.4656 O   0  0  0  0  0  0  0  0  0  0  0  0
   -4.2801    1.4148    4.3183 C   0  0  0  0  0  0  0  0  0  0  0  0
   -4.6923    2.4770    3.4604 O   0  0  0  0  0  0  0  0  0  0  0  0
   -6.6499   -0.2875    4.8095 O   0  0  0  0  0  0  0  0  0  0  0  0
   -7.0613    1.4947    2.8703 O   0  0  0  0  0  0  0  0  0  0  0  0
   -5.5367    1.5761    0.6141 N   0  0  0  0  0  0  0  0  0  0  0  0
    1.7722    3.1985    0.9057 N   0  0  0  0  0  0  0  0  0  0  0  0
    0.4308    6.3788    0.1636 O   0  0  0  0  0  0  0  0  0  0  0  0
   -1.2393    6.3069    2.5428 O   0  0  0  0  0  0  0  0  0  0  0  0
    0.6291    3.5313    3.5430 O   0  0  0  0  0  0  0  0  0  0  0  0
   -1.0709    4.3632    4.3433 H   0  0  0  0  0  0  0  0  0  0  0  0
   -1.1270    2.6174    4.0040 H   0  0  0  0  0  0  0  0  0  0  0  0
   -2.5158    3.8392    2.4118 H   0  0  0  0  0  0  0  0  0  0  0  0
   -1.7851    5.4185    0.8144 H   0  0  0  0  0  0  0  0  0  0  0  0
    1.0810    5.4147    1.8167 H   0  0  0  0  0  0  0  0  0  0  0  0
    1.0216    4.1882   -0.7672 H   0  0  0  0  0  0  0  0  0  0  0  0
   -1.3802    3.5957   -0.4642 H   0  0  0  0  0  0  0  0  0  0  0  0
   -1.3563    0.5658   -1.7360 H   0  0  0  0  0  0  0  0  0  0  0  0
   -2.3412    1.4932   -0.6186 H   0  0  0  0  0  0  0  0  0  0  0  0
   -1.2628    0.2760    1.3099 H   0  0  0  0  0  0  0  0  0  0  0  0
   -2.4096   -1.8094    1.1613 H   0  0  0  0  0  0  0  0  0  0  0  0
   -2.4466   -1.5430   -1.8734 H   0  0  0  0  0  0  0  0  0  0  0  0
   -0.7499   -3.3492   -1.8952 H   0  0  0  0  0  0  0  0  0  0  0  0
    0.0776   -1.0488   -1.8417 H   0  0  0  0  0  0  0  0  0  0  0  0
    2.1095   -0.7473   -2.1953 H   0  0  0  0  0  0  0  0  0  0  0  0
    3.6541   -1.5046    0.3704 H   0  0  0  0  0  0  0  0  0  0  0  0
    4.2647    0.7414   -1.6522 H   0  0  0  0  0  0  0  0  0  0  0  0
    5.8163   -1.8359   -1.1676 H   0  0  0  0  0  0  0  0  0  0  0  0
    4.0495   -0.9984   -3.5620 H   0  0  0  0  0  0  0  0  0  0  0  0
    5.6071   -3.5812   -3.0141 H   0  0  0  0  0  0  0  0  0  0  0  0
    5.9918   -2.3798   -4.2715 H   0  0  0  0  0  0  0  0  0  0  0  0
    3.5014   -3.6898   -3.9773 H   0  0  0  0  0  0  0  0  0  0  0  0
    6.7587    0.2737   -1.8381 H   0  0  0  0  0  0  0  0  0  0  0  0
    4.4138    2.2152   -0.1637 H   0  0  0  0  0  0  0  0  0  0  0  0
    6.1680    1.4570    2.2056 H   0  0  0  0  0  0  0  0  0  0  0  0
    5.4870    4.3071    1.2974 H   0  0  0  0  0  0  0  0  0  0  0  0
    8.2803    3.2976    1.9590 H   0  0  0  0  0  0  0  0  0  0  0  0
    7.9051    1.5696    0.4373 H   0  0  0  0  0  0  0  0  0  0  0  0
    9.7031    2.9219   -0.5774 H   0  0  0  0  0  0  0  0  0  0  0  0
    8.6727    2.1917   -1.8399 H   0  0  0  0  0  0  0  0  0  0  0  0
    9.0062    4.2835   -2.3740 H   0  0  0  0  0  0  0  0  0  0  0  0
    7.8391    4.9895   -0.1230 H   0  0  0  0  0  0  0  0  0  0  0  0
    6.6486    4.8733    3.1478 H   0  0  0  0  0  0  0  0  0  0  0  0
    4.3749    2.5942    3.3390 H   0  0  0  0  0  0  0  0  0  0  0  0
    3.5277    2.6818    1.9654 H   0  0  0  0  0  0  0  0  0  0  0  0
    3.0650    0.5095    1.2323 H   0  0  0  0  0  0  0  0  0  0  0  0
    1.6753   -0.1763    0.7056 H   0  0  0  0  0  0  0  0  0  0  0  0
    0.2217   -4.0746    0.1441 H   0  0  0  0  0  0  0  0  0  0  0  0
   -1.3434   -4.5522   -0.0650 H   0  0  0  0  0  0  0  0  0  0  0  0
   -3.0801   -3.4332   -2.9209 H   0  0  0  0  0  0  0  0  0  0  0  0
   -5.3982   -4.6061   -1.2804 H   0  0  0  0  0  0  0  0  0  0  0  0
   -4.9345   -5.0316   -4.2843 H   0  0  0  0  0  0  0  0  0  0  0  0
   -4.6265   -7.0063   -1.9738 H   0  0  0  0  0  0  0  0  0  0  0  0
   -2.2668   -7.0221   -2.3780 H   0  0  0  0  0  0  0  0  0  0  0  0
   -2.5273   -4.8593   -4.5245 H   0  0  0  0  0  0  0  0  0  0  0  0
   -1.0437   -5.5637   -3.8841 H   0  0  0  0  0  0  0  0  0  0  0  0
   -1.6104   -6.5906   -5.7735 H   0  0  0  0  0  0  0  0  0  0  0  0
   -3.7224   -7.5875   -4.5285 H   0  0  0  0  0  0  0  0  0  0  0  0
   -6.5343   -6.6656   -3.7620 H   0  0  0  0  0  0  0  0  0  0  0  0
   -5.7441   -2.4132   -1.8639 H   0  0  0  0  0  0  0  0  0  0  0  0
   -6.7145   -3.3696   -2.7776 H   0  0  0  0  0  0  0  0  0  0  0  0
   -4.6649   -1.6367    1.5360 H   0  0  0  0  0  0  0  0  0  0  0  0
   -6.3340   -0.3149    0.3489 H   0  0  0  0  0  0  0  0  0  0  0  0
   -7.5765   -0.3592    2.2322 H   0  0  0  0  0  0  0  0  0  0  0  0
   -5.8981   -1.5676    3.4117 H   0  0  0  0  0  0  0  0  0  0  0  0
   -3.9367   -0.6765    4.3887 H   0  0  0  0  0  0  0  0  0  0  0  0
   -4.8124    1.5076    5.2700 H   0  0  0  0  0  0  0  0  0  0  0  0
   -3.2176    1.5839    4.5183 H   0  0  0  0  0  0  0  0  0  0  0  0
   -5.6549    2.3589    3.2927 H   0  0  0  0  0  0  0  0  0  0  0  0
   -6.2631   -0.8631    5.4947 H   0  0  0  0  0  0  0  0  0  0  0  0
   -7.5992    1.3285    3.6726 H   0  0  0  0  0  0  0  0  0  0  0  0
   -5.0880    2.1142    1.3632 H   0  0  0  0  0  0  0  0  0  0  0  0
   -4.8080    1.4892   -0.0977 H   0  0  0  0  0  0  0  0  0  0  0  0
    1.4328    2.9945    1.8599 H   0  0  0  0  0  0  0  0  0  0  0  0
    1.7951    2.2612    0.4681 H   0  0  0  0  0  0  0  0  0  0  0  0
    0.2632    7.1468    0.7432 H   0  0  0  0  0  0  0  0  0  0  0  0
   -2.1825    6.3490    2.7829 H   0  0  0  0  0  0  0  0  0  0  0  0
    0.9567    3.3259    4.4366 H   0  0  0  0  0  0  0  0  0  0  0  0
  1  2  1  0
  2  3  1  0
  3  4  1  0
  4  5  1  0
  5  6  1  0
  6  7  1  0
  6  8  1  0
  8  9  1  0
  9 10  1  0
 10 11  1  0
 11 12  1  0
 12 13  1  0
 13 14  1  0
 14 15  1  0
 14 16  1  0
 16 17  1  0
 17 18  1  0
 18 19  1  0
 19 20  1  0
 20 21  1  0
 21 22  1  0
 21 23  1  0
 23 24  1  0
 20 25  1  0
 19 26  1  0
 26 27  1  0
 27 28  1  0
 28 29  1  0
 29 30  1  0
 30 31  1  0
 31 32  1  0
 31 33  1  0
 33 34  1  0
 30 35  1  0
 29 36  1  0
 28 37  1  0
 18 38  1  0
 13 39  1  0
 12 40  1  0
 40 41  1  0
 41 42  1  0
 42 43  1  0
 43 44  1  0
 44 45  1  0
 45 46  1  0
 45 47  1  0
 47 48  1  0
 44 49  1  0
 43 50  1  0
 42 51  1  0
 11 52  1  0
 52 53  1  0
 53 54  1  0
 54 55  1  0
 55 56  1  0
 56 57  1  0
 57 58  1  0
 57 59  1  0
 59 60  1  0
 56 61  1  0
 55 62  1  0
 54 63  1  0
  5 64  1  0
  4 65  1  0
  3 66  1  0
  1 67  1  0
  7  2  1  0
 15 10  1  0
 22 17  1  0
 32 27  1  0
 46 41  1  0
 58 53  1  0
  1 68  1  0
  1 69  1  0
  2 70  1  0
  3 71  1  0
  4 72  1  0
  5 73  1  0
  6 74  1  0
  9 75  1  0
  9 76  1  0
 10 77  1  0
 11 78  1  0
 12 79  1  0
 13 80  1  0
 14 81  1  0
 17 82  1  0
 18 83  1  0
 19 84  1  0
 20 85  1  0
 21 86  1  0
 23 87  1  0
 23 88  1  0
 24 89  1  0
 25 90  1  0
 27 91  1  0
 28 92  1  0
 29 93  1  0
 30 94  1  0
 31 95  1  0
 33 96  1  0
 33 97  1  0
 34 98  1  0
 35 99  1  0
 36100  1  0
 37101  1  0
 37102  1  0
 38103  1  0
 38104  1  0
 39105  1  0
 39106  1  0
 41107  1  0
 42108  1  0
 43109  1  0
 44110  1  0
 45111  1  0
 47112  1  0
 47113  1  0
 48114  1  0
 49115  1  0
 50116  1  0
 51117  1  0
 51118  1  0
 53119  1  0
 54120  1  0
 55121  1  0
 56122  1  0
 57123  1  0
 59124  1  0
 59125  1  0
 60126  1  0
 61127  1  0
 62128  1  0
 63129  1  0
 63130  1  0
 64131  1  0
 64132  1  0
 65133  1  0
 66134  1  0
 67135  1  0
M  END
$$$$
