pectinase_substrate
     RDKit          3D

 43 44  0  0  0  0  0  0  0  0999 V2000
    3.6400   -0.0158    0.9900 C   0  0  0  0  0  0  0  0  0  0  0  0
    3.3039    1.4237    0.5645 C   0  0  0  0  0  0  0  0  0  0  0  0
    1.7977    1.5689    0.3002 C   0  0  0  0  0  0  0  0  0  0  0  0
    1.0794    0.7039    1.1904 O   0  0  0  0  0  0  0  0  0  0  0  0
    1.2069   -0.6694    0.8202 C   0  0  0  0  0  0  0  0  0  0  0  0
    2.6599   -1.0268    0.3976 C   0  0  0  0  0  0  0  0  0  0  0  0
    3.0425   -2.3499    0.8193 O   0  0  0  0  0  0  0  0  0  0  0  0
    0.3359   -0.9876   -0.2626 O   0  0  0  0  0  0  0  0  0  0  0  0
   -1.0541   -1.1082    0.0715 C   0  0  0  0  0  0  0  0  0  0  0  0
   -1.7452    0.2177    0.4617 C   0  0  0  0  0  0  0  0  0  0  0  0
   -3.2666    0.1504    0.2665 C   0  0  0  0  0  0  0  0  0  0  0  0
   -3.7631   -1.3079    0.2447 C   0  0  0  0  0  0  0  0  0  0  0  0
   -3.1340   -2.1404   -0.7206 O   0  0  0  0  0  0  0  0  0  0  0  0
   -1.8072   -1.7579   -1.1003 C   0  0  0  0  0  0  0  0  0  0  0  0
   -1.7558   -0.9041   -2.3793 C   0  0  0  0  0  0  0  0  0  0  0  0
   -0.9420   -0.0375   -2.6599 O   0  0  0  0  0  0  0  0  0  0  0  0
   -2.7195   -1.2307   -3.2692 O   0  0  0  0  0  0  0  0  0  0  0  0
   -5.1492   -1.2877   -0.0779 O   0  0  0  0  0  0  0  0  0  0  0  0
   -3.6247    0.7831   -0.9772 O   0  0  0  0  0  0  0  0  0  0  0  0
   -1.4859    0.4762    1.8522 O   0  0  0  0  0  0  0  0  0  0  0  0
    1.3513    3.0241    0.3832 C   0  0  0  0  0  0  0  0  0  0  0  0
    1.8320    3.9630   -0.2336 O   0  0  0  0  0  0  0  0  0  0  0  0
    0.2820    3.2175    1.1876 O   0  0  0  0  0  0  0  0  0  0  0  0
    3.7512    2.2774    1.6303 O   0  0  0  0  0  0  0  0  0  0  0  0
    4.9855   -0.3219    0.5955 O   0  0  0  0  0  0  0  0  0  0  0  0
    3.6346   -0.1052    2.0841 H   0  0  0  0  0  0  0  0  0  0  0  0
    3.8638    1.7272   -0.3281 H   0  0  0  0  0  0  0  0  0  0  0  0
    1.5624    1.2594   -0.7274 H   0  0  0  0  0  0  0  0  0  0  0  0
    0.9269   -1.2745    1.6903 H   0  0  0  0  0  0  0  0  0  0  0  0
    2.7529   -1.0360   -0.6952 H   0  0  0  0  0  0  0  0  0  0  0  0
    2.8999   -2.4195    1.7806 H   0  0  0  0  0  0  0  0  0  0  0  0
   -1.1186   -1.7992    0.9243 H   0  0  0  0  0  0  0  0  0  0  0  0
   -1.3291    1.0565   -0.1085 H   0  0  0  0  0  0  0  0  0  0  0  0
   -3.7942    0.7073    1.0494 H   0  0  0  0  0  0  0  0  0  0  0  0
   -3.6425   -1.7654    1.2332 H   0  0  0  0  0  0  0  0  0  0  0  0
   -1.2872   -2.6845   -1.3759 H   0  0  0  0  0  0  0  0  0  0  0  0
   -2.5957   -0.5850   -3.9951 H   0  0  0  0  0  0  0  0  0  0  0  0
   -5.4096   -2.2251   -0.0768 H   0  0  0  0  0  0  0  0  0  0  0  0
   -4.5330    0.4637   -1.1641 H   0  0  0  0  0  0  0  0  0  0  0  0
   -0.6388    0.9758    1.8739 H   0  0  0  0  0  0  0  0  0  0  0  0
    0.1187    4.1822    1.1321 H   0  0  0  0  0  0  0  0  0  0  0  0
    4.7198    2.1601    1.6803 H   0  0  0  0  0  0  0  0  0  0  0  0
    5.0487   -1.2980    0.5723 H   0  0  0  0  0  0  0  0  0  0  0  0
  1  2  1  0
  2  3  1  0
  3  4  1  0
  4  5  1  0
  5  6  1  0
  6  7  1  0
  5  8  1  0
  8  9  1  0
  9 10  1  0
 10 11  1  0
 11 12  1  0
 12 13  1  0
 13 14  1  0
 14 15  1  0
 15 16  2  0
 15 17  1  0
 12 18  1  0
 11 19  1  0
 10 20  1  0
  3 21  1  0
 21 22  2  0
 21 23  1  0
  2 24  1  0
  1 25  1  0
  6  1  1  0
 14  9  1  0
  1 26  1  0
  2 27  1  0
  3 28  1  0
  5 29  1  0
  6 30  1  0
  7 31  1  0
  9 32  1  0
 10 33  1  0
 11 34  1  0
 12 35  1  0
 14 36  1  0
 17 37  1  0
 18 38  1  0
 19 39  1  0
 20 40  1  0
 23 41  1  0
 24 42  1  0
 25 43  1  0
M  END
$$$$
