protease_substrate
     RDKit          3D

 81 83  0  0  0  0  0  0  0  0999 V2000
    7.1932    0.3079    2.7151 C   0  0  0  0  0  0  0  0  0  0  0  0
    5.8787    0.2168    1.9507 C   0  0  0  0  0  0  0  0  0  0  0  0
    5.0817    1.5343    2.0472 C   0  0  0  0  0  0  0  0  0  0  0  0
    5.1514    2.3050    3.0002 O   0  0  0  0  0  0  0  0  0  0  0  0
    4.1865    1.7131    1.0170 N   0  0  0  0  0  0  0  0  0  0  0  0
    3.2292    2.8130    0.9706 C   0  0  0  0  0  0  0  0  0  0  0  0
    3.9078    4.0946    0.5013 C   0  0  0  0  0  0  0  0  0  0  0  0
    2.1137    2.4056   -0.0128 C   0  0  0  0  0  0  0  0  0  0  0  0
    2.3333    1.5681   -0.8964 O   0  0  0  0  0  0  0  0  0  0  0  0
    0.8910    3.0258    0.0959 N   0  0  0  0  0  0  0  0  0  0  0  0
    0.4664    3.9975    1.0923 C   0  0  0  0  0  0  0  0  0  0  0  0
   -1.0300    4.1711    0.8614 C   0  0  0  0  0  0  0  0  0  0  0  0
   -1.2111    3.7982   -0.6084 C   0  0  0  0  0  0  0  0  0  0  0  0
   -0.2041    2.6645   -0.7974 C   0  0  0  0  0  0  0  0  0  0  0  0
   -0.8374    1.3107   -0.4004 C   0  0  0  0  0  0  0  0  0  0  0  0
   -0.7007    0.7955    0.7075 O   0  0  0  0  0  0  0  0  0  0  0  0
   -1.6259    0.7488   -1.3888 N   0  0  0  0  0  0  0  0  0  0  0  0
   -2.5073   -0.3772   -1.0686 C   0  0  0  0  0  0  0  0  0  0  0  0
   -2.6110   -1.3348   -2.2654 C   0  0  0  0  0  0  0  0  0  0  0  0
   -3.2518   -2.6576   -1.9147 C   0  0  0  0  0  0  0  0  0  0  0  0
   -4.5591   -2.9482   -2.3283 C   0  0  0  0  0  0  0  0  0  0  0  0
   -5.1648   -4.1506   -1.9616 C   0  0  0  0  0  0  0  0  0  0  0  0
   -4.4694   -5.0744   -1.1842 C   0  0  0  0  0  0  0  0  0  0  0  0
   -3.1661   -4.7991   -0.7753 C   0  0  0  0  0  0  0  0  0  0  0  0
   -2.5582   -3.5972   -1.1391 C   0  0  0  0  0  0  0  0  0  0  0  0
   -3.8925    0.2219   -0.7253 C   0  0  0  0  0  0  0  0  0  0  0  0
   -4.2247    1.3222   -1.1677 O   0  0  0  0  0  0  0  0  0  0  0  0
   -4.6772   -0.6160    0.0487 N   0  0  0  0  0  0  0  0  0  0  0  0
   -5.9919   -0.3950    0.5020 C   0  0  0  0  0  0  0  0  0  0  0  0
   -6.7046    0.7883    0.2902 C   0  0  0  0  0  0  0  0  0  0  0  0
   -8.0120    0.9296    0.7723 C   0  0  0  0  0  0  0  0  0  0  0  0
   -8.6103   -0.1231    1.4728 C   0  0  0  0  0  0  0  0  0  0  0  0
   -7.9087   -1.3128    1.6940 C   0  0  0  0  0  0  0  0  0  0  0  0
   -6.6033   -1.4416    1.2081 C   0  0  0  0  0  0  0  0  0  0  0  0
   -9.9813    0.0206    1.9775 N   0  0  0  0  0  0  0  0  0  0  0  0
  -10.4764   -0.9422    2.5807 O   0  0  0  0  0  0  0  0  0  0  0  0
  -10.5635    1.0945    1.7694 O   0  0  0  0  0  0  0  0  0  0  0  0
    6.1094   -0.1297    0.5464 N   0  0  0  0  0  0  0  0  0  0  0  0
    6.2811   -1.4349    0.1461 C   0  0  0  0  0  0  0  0  0  0  0  0
    6.1445   -2.3940    0.8964 O   0  0  0  0  0  0  0  0  0  0  0  0
    6.6024   -1.5678   -1.3295 C   0  0  0  0  0  0  0  0  0  0  0  0
    7.0620   -2.9773   -1.6815 C   0  0  0  0  0  0  0  0  0  0  0  0
    8.4308   -3.2495   -1.1221 C   0  0  0  0  0  0  0  0  0  0  0  0
    9.2320   -2.4275   -0.7096 O   0  0  0  0  0  0  0  0  0  0  0  0
    8.7451   -4.5583   -1.1620 O   0  0  0  0  0  0  0  0  0  0  0  0
    7.0196    0.5336    3.7724 H   0  0  0  0  0  0  0  0  0  0  0  0
    7.8314    1.0993    2.3059 H   0  0  0  0  0  0  0  0  0  0  0  0
    7.7507   -0.6329    2.6565 H   0  0  0  0  0  0  0  0  0  0  0  0
    5.2552   -0.5649    2.4015 H   0  0  0  0  0  0  0  0  0  0  0  0
    4.0596    0.9591    0.3444 H   0  0  0  0  0  0  0  0  0  0  0  0
    2.8189    2.9385    1.9767 H   0  0  0  0  0  0  0  0  0  0  0  0
    3.2046    4.9294    0.4429 H   0  0  0  0  0  0  0  0  0  0  0  0
    4.7174    4.3843    1.1792 H   0  0  0  0  0  0  0  0  0  0  0  0
    4.3440    3.9646   -0.4960 H   0  0  0  0  0  0  0  0  0  0  0  0
    1.0002    4.9341    0.9084 H   0  0  0  0  0  0  0  0  0  0  0  0
    0.6912    3.6462    2.1027 H   0  0  0  0  0  0  0  0  0  0  0  0
   -1.5909    3.4737    1.4951 H   0  0  0  0  0  0  0  0  0  0  0  0
   -1.3744    5.1838    1.0891 H   0  0  0  0  0  0  0  0  0  0  0  0
   -0.9330    4.6529   -1.2372 H   0  0  0  0  0  0  0  0  0  0  0  0
   -2.2443    3.5232   -0.8383 H   0  0  0  0  0  0  0  0  0  0  0  0
    0.1562    2.5983   -1.8303 H   0  0  0  0  0  0  0  0  0  0  0  0
   -1.9818    1.3844   -2.0952 H   0  0  0  0  0  0  0  0  0  0  0  0
   -2.1185   -0.8950   -0.1844 H   0  0  0  0  0  0  0  0  0  0  0  0
   -3.1638   -0.8582   -3.0859 H   0  0  0  0  0  0  0  0  0  0  0  0
   -1.6093   -1.5407   -2.6662 H   0  0  0  0  0  0  0  0  0  0  0  0
   -5.1205   -2.2378   -2.9327 H   0  0  0  0  0  0  0  0  0  0  0  0
   -6.1790   -4.3689   -2.2871 H   0  0  0  0  0  0  0  0  0  0  0  0
   -4.9396   -6.0142   -0.9054 H   0  0  0  0  0  0  0  0  0  0  0  0
   -2.6194   -5.5251   -0.1779 H   0  0  0  0  0  0  0  0  0  0  0  0
   -1.5370   -3.4016   -0.8150 H   0  0  0  0  0  0  0  0  0  0  0  0
   -4.2757   -1.5180    0.2869 H   0  0  0  0  0  0  0  0  0  0  0  0
   -6.2707    1.6283   -0.2440 H   0  0  0  0  0  0  0  0  0  0  0  0
   -8.5408    1.8636    0.5920 H   0  0  0  0  0  0  0  0  0  0  0  0
   -8.3569   -2.1425    2.2367 H   0  0  0  0  0  0  0  0  0  0  0  0
   -6.0732   -2.3755    1.3856 H   0  0  0  0  0  0  0  0  0  0  0  0
    6.4161    0.6138   -0.0696 H   0  0  0  0  0  0  0  0  0  0  0  0
    7.3637   -0.8287   -1.6044 H   0  0  0  0  0  0  0  0  0  0  0  0
    5.6871   -1.3356   -1.8862 H   0  0  0  0  0  0  0  0  0  0  0  0
    7.1203   -3.0832   -2.7700 H   0  0  0  0  0  0  0  0  0  0  0  0
    6.3605   -3.7234   -1.2928 H   0  0  0  0  0  0  0  0  0  0  0  0
    9.6351   -4.6034   -0.7545 H   0  0  0  0  0  0  0  0  0  0  0  0
  1  2  1  0
  2  3  1  0
  3  4  2  0
  3  5  1  0
  5  6  1  0
  6  7  1  0
  6  8  1  0
  8  9  2  0
  8 10  1  0
 10 11  1  0
 11 12  1  0
 12 13  1  0
 13 14  1  0
 14 15  1  0
 15 16  2  0
 15 17  1  0
 17 18  1  0
 18 19  1  0
 19 20  1  0
 20 21  2  0
 21 22  1  0
 22 23  2  0
 23 24  1  0
 24 25  2  0
 18 26  1  0
 26 27  2  0
 26 28  1  0
 28 29  1  0
 29 30  1  0
 30 31  2  0
 31 32  1  0
 32 33  2  0
 33 34  1  0
 32 35  1  0
 35 36  2  0
 35 37  1  0
  2 38  1  0
 38 39  1  0
 39 40  2  0
 39 41  1  0
 41 42  1  0
 42 43  1  0
 43 44  2  0
 43 45  1  0
 14 10  1  0
 25 20  1  0
 34 29  2  0
  1 46  1  0
  1 47  1  0
  1 48  1  0
  2 49  1  0
  5 50  1  0
  6 51  1  0
  7 52  1  0
  7 53  1  0
  7 54  1  0
 11 55  1  0
 11 56  1  0
 12 57  1  0
 12 58  1  0
 13 59  1  0
 13 60  1  0
 14 61  1  0
 17 62  1  0
 18 63  1  0
 19 64  1  0
 19 65  1  0
 21 66  1  0
 22 67  1  0
 23 68  1  0
 24 69  1  0
 25 70  1  0
 28 71  1  0
 30 72  1  0
 31 73  1  0
 33 74  1  0
 34 75  1  0
 38 76  1  0
 41 77  1  0
 41 78  1  0
 42 79  1  0
 42 80  1  0
 45 81  1  0
M  CHG  2  35   1  37  -1
M  END
$$$$
