xylanase_substrate
     RDKit          3D

 88 91  0  0  0  0  0  0  0  0999 V2000
    8.6598   -1.1320    2.0120 C   0  0  0  0  0  0  0  0  0  0  0  0
    9.9706   -0.3555    1.8505 C   0  0  0  0  0  0  0  0  0  0  0  0
    9.8844    0.6562    0.6935 C   0  0  0  0  0  0  0  0  0  0  0  0
    8.5192    1.3481    0.7056 C   0  0  0  0  0  0  0  0  0  0  0  0
    7.3803    0.2978    0.6180 C   0  0  0  0  0  0  0  0  0  0  0  0
    7.8655   -1.0339    0.8339 O   0  0  0  0  0  0  0  0  0  0  0  0
    6.8371    0.3556   -0.7068 O   0  0  0  0  0  0  0  0  0  0  0  0
    5.4283    0.0882   -0.7662 C   0  0  0  0  0  0  0  0  0  0  0  0
    4.9690    0.3412   -2.2070 C   0  0  0  0  0  0  0  0  0  0  0  0
    3.5680    0.1601   -2.4298 O   0  0  0  0  0  0  0  0  0  0  0  0
    2.9393   -0.8102   -1.5918 C   0  0  0  0  0  0  0  0  0  0  0  0
    3.9227   -1.9315   -1.1956 C   0  0  0  0  0  0  0  0  0  0  0  0
    5.0638   -1.3504   -0.3417 C   0  0  0  0  0  0  0  0  0  0  0  0
    4.6850   -1.3452    1.0510 O   0  0  0  0  0  0  0  0  0  0  0  0
    3.2776   -2.9903   -0.4736 O   0  0  0  0  0  0  0  0  0  0  0  0
    2.4293   -0.1900   -0.4055 O   0  0  0  0  0  0  0  0  0  0  0  0
    1.4281    0.8138   -0.6432 C   0  0  0  0  0  0  0  0  0  0  0  0
    0.1138    0.2173   -1.1718 C   0  0  0  0  0  0  0  0  0  0  0  0
   -0.9918    1.0776   -0.9159 O   0  0  0  0  0  0  0  0  0  0  0  0
   -1.2841    1.2461    0.4773 C   0  0  0  0  0  0  0  0  0  0  0  0
   -0.0566    1.0496    1.4036 C   0  0  0  0  0  0  0  0  0  0  0  0
    1.1856    1.5744    0.6826 C   0  0  0  0  0  0  0  0  0  0  0  0
    2.3250    1.4681    1.5499 O   0  0  0  0  0  0  0  0  0  0  0  0
    0.1465   -0.3391    1.7331 O   0  0  0  0  0  0  0  0  0  0  0  0
   -2.3570    0.4066    0.9144 O   0  0  0  0  0  0  0  0  0  0  0  0
   -3.5240    0.4939    0.0936 C   0  0  0  0  0  0  0  0  0  0  0  0
   -4.7850    0.4295    0.9548 C   0  0  0  0  0  0  0  0  0  0  0  0
   -5.9837    0.6050    0.1909 O   0  0  0  0  0  0  0  0  0  0  0  0
   -5.9392    0.0605   -1.1364 C   0  0  0  0  0  0  0  0  0  0  0  0
   -4.9597   -1.1257   -1.2667 C   0  0  0  0  0  0  0  0  0  0  0  0
   -3.5331   -0.6694   -0.9201 C   0  0  0  0  0  0  0  0  0  0  0  0
   -2.8039   -1.8090   -0.4201 O   0  0  0  0  0  0  0  0  0  0  0  0
   -5.3364   -2.2007   -0.3794 O   0  0  0  0  0  0  0  0  0  0  0  0
   -7.2432   -0.3673   -1.5293 O   0  0  0  0  0  0  0  0  0  0  0  0
   -8.2152    0.6891   -1.6008 C   0  0  0  0  0  0  0  0  0  0  0  0
   -8.8450    0.6644   -2.9978 C   0  0  0  0  0  0  0  0  0  0  0  0
   -9.7785    1.7252   -3.1553 O   0  0  0  0  0  0  0  0  0  0  0  0
   -9.2389    0.5401   -0.4439 C   0  0  0  0  0  0  0  0  0  0  0  0
   -9.8281   -0.8715   -0.2865 C   0  0  0  0  0  0  0  0  0  0  0  0
  -10.8007   -0.8862    0.8859 C   0  0  0  0  0  0  0  0  0  0  0  0
  -11.9107   -1.4163    0.8151 O   0  0  0  0  0  0  0  0  0  0  0  0
  -10.5271   -1.2985   -1.4560 O   0  0  0  0  0  0  0  0  0  0  0  0
   -8.5979    0.9015    0.7996 O   0  0  0  0  0  0  0  0  0  0  0  0
    8.4253    2.0998    1.9395 O   0  0  0  0  0  0  0  0  0  0  0  0
   10.9160    1.6499    0.8331 O   0  0  0  0  0  0  0  0  0  0  0  0
   10.2880    0.3428    3.0671 O   0  0  0  0  0  0  0  0  0  0  0  0
    8.8829   -2.1920    2.1740 H   0  0  0  0  0  0  0  0  0  0  0  0
    8.0790   -0.7977    2.8803 H   0  0  0  0  0  0  0  0  0  0  0  0
   10.8050   -1.0415    1.6687 H   0  0  0  0  0  0  0  0  0  0  0  0
   10.0318    0.1481   -0.2665 H   0  0  0  0  0  0  0  0  0  0  0  0
    8.4419    2.0851   -0.1022 H   0  0  0  0  0  0  0  0  0  0  0  0
    6.6087    0.5293    1.3632 H   0  0  0  0  0  0  0  0  0  0  0  0
    4.9198    0.8117   -0.1155 H   0  0  0  0  0  0  0  0  0  0  0  0
    5.5151   -0.3099   -2.9015 H   0  0  0  0  0  0  0  0  0  0  0  0
    5.2220    1.3646   -2.5070 H   0  0  0  0  0  0  0  0  0  0  0  0
    2.1047   -1.2555   -2.1430 H   0  0  0  0  0  0  0  0  0  0  0  0
    4.3403   -2.3595   -2.1158 H   0  0  0  0  0  0  0  0  0  0  0  0
    5.9231   -2.0247   -0.4154 H   0  0  0  0  0  0  0  0  0  0  0  0
    3.9299   -1.9644    1.1272 H   0  0  0  0  0  0  0  0  0  0  0  0
    3.9174   -3.7226   -0.4000 H   0  0  0  0  0  0  0  0  0  0  0  0
    1.8217    1.5465   -1.3585 H   0  0  0  0  0  0  0  0  0  0  0  0
   -0.0811   -0.7828   -0.7677 H   0  0  0  0  0  0  0  0  0  0  0  0
    0.1842    0.0914   -2.2578 H   0  0  0  0  0  0  0  0  0  0  0  0
   -1.6154    2.2868    0.5827 H   0  0  0  0  0  0  0  0  0  0  0  0
   -0.2219    1.5584    2.3596 H   0  0  0  0  0  0  0  0  0  0  0  0
    1.0385    2.6398    0.4680 H   0  0  0  0  0  0  0  0  0  0  0  0
    2.8424    0.7030    1.2173 H   0  0  0  0  0  0  0  0  0  0  0  0
    0.9541   -0.3616    2.2813 H   0  0  0  0  0  0  0  0  0  0  0  0
   -3.5561    1.4475   -0.4518 H   0  0  0  0  0  0  0  0  0  0  0  0
   -4.7601    1.2195    1.7138 H   0  0  0  0  0  0  0  0  0  0  0  0
   -4.8442   -0.5120    1.5135 H   0  0  0  0  0  0  0  0  0  0  0  0
   -5.6176    0.8569   -1.8203 H   0  0  0  0  0  0  0  0  0  0  0  0
   -4.9927   -1.5483   -2.2768 H   0  0  0  0  0  0  0  0  0  0  0  0
   -3.0226   -0.3401   -1.8318 H   0  0  0  0  0  0  0  0  0  0  0  0
   -2.1712   -1.4500    0.2404 H   0  0  0  0  0  0  0  0  0  0  0  0
   -4.5074   -2.7063   -0.2407 H   0  0  0  0  0  0  0  0  0  0  0  0
   -7.7242    1.6651   -1.4797 H   0  0  0  0  0  0  0  0  0  0  0  0
   -8.0601    0.7908   -3.7526 H   0  0  0  0  0  0  0  0  0  0  0  0
   -9.3260   -0.2906   -3.2222 H   0  0  0  0  0  0  0  0  0  0  0  0
  -10.3138    1.5110   -3.9398 H   0  0  0  0  0  0  0  0  0  0  0  0
  -10.0499    1.2635   -0.5876 H   0  0  0  0  0  0  0  0  0  0  0  0
   -9.0463   -1.6022   -0.0519 H   0  0  0  0  0  0  0  0  0  0  0  0
  -10.4357   -0.4588    1.8349 H   0  0  0  0  0  0  0  0  0  0  0  0
  -11.2492   -1.8801   -1.1396 H   0  0  0  0  0  0  0  0  0  0  0  0
   -7.6524    0.6449    0.7191 H   0  0  0  0  0  0  0  0  0  0  0  0
    9.0979    2.8054    1.8424 H   0  0  0  0  0  0  0  0  0  0  0  0
   11.3448    1.4754    1.6969 H   0  0  0  0  0  0  0  0  0  0  0  0
    9.5542    0.9764    3.2199 H   0  0  0  0  0  0  0  0  0  0  0  0
  1  2  1  0
  2  3  1  0
  3  4  1  0
  4  5  1  0
  5  6  1  0
  5  7  1  0
  7  8  1  0
  8  9  1  0
  9 10  1  0
 10 11  1  0
 11 12  1  0
 12 13  1  0
 13 14  1  0
 12 15  1  0
 11 16  1  0
 16 17  1  0
 17 18  1  0
 18 19  1  0
 19 20  1  0
 20 21  1  0
 21 22  1  0
 22 23  1  0
 21 24  1  0
 20 25  1  0
 25 26  1  0
 26 27  1  0
 27 28  1  0
 28 29  1  0
 29 30  1  0
 30 31  1  0
 31 32  1  0
 30 33  1  0
 29 34  1  0
 34 35  1  0
 35 36  1  0
 36 37  1  0
 35 38  1  0
 38 39  1  0
 39 40  1  0
 40 41  2  0
 39 42  1  0
 38 43  1  0
  4 44  1  0
  3 45  1  0
  2 46  1  0
  6  1  1  0
 13  8  1  0
 22 17  1  0
 31 26  1  0
  1 47  1  0
  1 48  1  0
  2 49  1  0
  3 50  1  0
  4 51  1  0
  5 52  1  0
  8 53  1  0
  9 54  1  0
  9 55  1  0
 11 56  1  0
 12 57  1  0
 13 58  1  0
 14 59  1  0
 15 60  1  0
 17 61  1  0
 18 62  1  0
 18 63  1  0
 20 64  1  0
 21 65  1  0
 22 66  1  0
 23 67  1  0
 24 68  1  0
 26 69  1  0
 27 70  1  0
 27 71  1  0
 29 72  1  0
 30 73  1  0
 31 74  1  0
 32 75  1  0
 33 76  1  0
 35 77  1  0
 36 78  1  0
 36 79  1  0
 37 80  1  0
 38 81  1  0
 39 82  1  0
 40 83  1  0
 42 84  1  0
 43 85  1  0
 44 86  1  0
 45 87  1  0
 46 88  1  0
M  END
$$$$
